_cell_length_a                    9.014100
_cell_length_b                    7.806500
_cell_length_c                    7.360000
_cell_angle_alpha                 90.000000
_cell_angle_beta                  90.000000
_cell_angle_gamma                 90.000000

_symmetry_space_group_name_H-M    'P 1'
_symmetry_Int_Tables_number       1

loop_
_symmetry_equiv_pos_as_xyz        
   'x, y, z'     

loop_
   _atom_site_label
   _atom_site_fract_x
   _atom_site_fract_y
   _atom_site_fract_z
   O  0.125359  0.166528  0.187500
   H  0.215218  0.226734  0.232337
   H  0.125359  0.046115  0.232337
   O  0.374968  0.333056  0.312500
   H  0.374968  0.453468  0.267663
   H  0.465937  0.272850  0.267663
   O  0.125359  0.166528  0.812500
   H  0.125359  0.166528  0.948370
   H  0.125359  0.046115  0.767663
   O  0.374968  0.333056  0.687500
   H  0.374968  0.333056  0.551630
   H  0.284000  0.272850  0.732337
   O  0.374968  0.666112  0.187500
   H  0.284000  0.727599  0.232337
   H  0.465937  0.727599  0.232337
   O  0.125359  0.833920  0.312500
   H  0.125359  0.833920  0.448370
   H  0.034391  0.772433  0.267663
   O  0.374968  0.666112  0.812500
   H  0.374968  0.545699  0.767663
   H  0.374968  0.666112  0.948370
   O  0.125359  0.833920  0.687500
   H  0.215218  0.772433  0.732337
   H  0.034391  0.772433  0.732337
   O  0.624577  0.166528  0.187500
   H  0.715546  0.226734  0.232337
   H  0.624577  0.166528  0.051630
   O  0.875295  0.333056  0.312500
   H  0.965155  0.272850  0.267663
   H  0.875295  0.453468  0.267663
   O  0.624577  0.166528  0.812500
   H  0.534718  0.226734  0.767663
   H  0.715546  0.226734  0.767663
   O  0.875295  0.333056  0.687500
   H  0.965155  0.272850  0.732337
   H  0.875295  0.333056  0.551630
   O  0.875295  0.666112  0.187500
   H  0.784327  0.727599  0.232337
   H  0.875295  0.666112  0.051630
   O  0.624577  0.833920  0.312500
   H  0.624577  0.954333  0.267663
   H  0.624577  0.833920  0.448370
   O  0.875295  0.666112  0.812500
   H  0.875295  0.545699  0.767663
   H  0.784327  0.727599  0.767663
   O  0.624577  0.833920  0.687500
   H  0.534718  0.772433  0.732337
   H  0.624577  0.954333  0.732337

