data_winmostar                    

_cell_length_a                    2.842898
_cell_length_b                    2.842898
_cell_length_c                    14.145616
_cell_angle_alpha                 90.000000
_cell_angle_beta                  90.000000
_cell_angle_gamma                 120.000000

_symmetry_space_group_name_H-M    'P 1'
_symmetry_Int_Tables_number       1

loop_
_symmetry_equiv_pos_as_xyz        
   'x, y, z'     

loop_
   _atom_site_label
   _atom_site_fract_x
   _atom_site_fract_y
   _atom_site_fract_z
   Li  0.000000  0.000000  0.000000
   Li  0.666667  0.333333  0.333333
   Li  0.333333  0.666667  0.666667
   Co  0.333333  0.666667  0.166667
   Co  0.000000  0.000000  0.500000
   Co  0.666667  0.333333  0.833333
   O  0.000000  0.000000  0.239587
   O  0.666667  0.333333  0.093746
   O  0.666667  0.333333  0.572920
   O  0.333333  0.666667  0.427080
   O  0.333333  0.666667  0.906254
   O  0.000000  0.000000  0.760413

