data_winmostar                    

_cell_length_a                    6.363420
_cell_length_b                    6.363420
_cell_length_c                    6.363420
_cell_angle_alpha                 90.000000
_cell_angle_beta                  90.000000
_cell_angle_gamma                 90.000000

_symmetry_space_group_name_H-M    'P 1'
_symmetry_Int_Tables_number       1

loop_
_symmetry_equiv_pos_as_xyz        
   'x, y, z'     

loop_
   _atom_site_label
   _atom_site_fract_x
   _atom_site_fract_y
   _atom_site_fract_z
   Mg  0.750000  0.250000  0.250000
   Mg  0.750000  0.250000  0.750000
   Mg  0.750000  0.750000  0.750000
   Mg  0.750000  0.750000  0.250000
   Mg  0.250000  0.250000  0.750000
   Mg  0.250000  0.250000  0.250000
   Mg  0.250000  0.750000  0.250000
   Mg  0.250000  0.750000  0.750000
   Si  0.000000  0.500000  0.500000
   Si  0.000000  0.000000  0.000000
   Si  0.500000  0.500000  0.000000
   Si  0.500000  0.000000  0.500000

