data_winmostar                    

_cell_length_a                    2.478974
_cell_length_b                    2.478974
_cell_length_c                    2.478974
_cell_angle_alpha                 60.000000
_cell_angle_beta                  60.000000
_cell_angle_gamma                 60.000000

_symmetry_space_group_name_H-M    'P 1'
_symmetry_Int_Tables_number       1

loop_
_symmetry_equiv_pos_as_xyz        
   'x, y, z'     

loop_
   _atom_site_label
   _atom_site_fract_x
   _atom_site_fract_y
   _atom_site_fract_z
   Ni  0.000000  0.000000  0.000000

