_cell_length_a                    4.593700
_cell_length_b                    4.593700
_cell_length_c                    2.958700
_cell_angle_alpha                 90.000000
_cell_angle_beta                  90.000000
_cell_angle_gamma                 90.000000

_symmetry_space_group_name_H-M    'P 1'
_symmetry_Int_Tables_number       1

loop_
_symmetry_equiv_pos_as_xyz        
   'x, y, z'     

loop_
   _atom_site_label
   _atom_site_fract_x
   _atom_site_fract_y
   _atom_site_fract_z
   Ti  0.000000  0.000000  0.000000
   O  0.304800  0.304800  0.000000
   O  0.695200  0.695200  0.000000
   Ti  0.500000  0.500000  0.500000
   O  0.195200  0.804800  0.500000
   O  0.804800  0.195200  0.500000

